4
Coordinates from ORCA-job orca
  N   0.00289462428131     -0.00052774113653      0.31917781247636
  H   0.92558612330663     -0.15452534214681     -0.11504626164798
  H   -0.59822007449002     -0.72491014657443     -0.10219044485978
  H   -0.33026067309791      0.87996322985777     -0.10194010596860
